Version 4
SHEET 1 880 680
WIRE -304 -272 -304 -304
WIRE -208 -272 -208 -304
WIRE -112 -272 -112 -304
WIRE -304 -176 -304 -192
WIRE -256 -176 -304 -176
WIRE -208 -176 -208 -192
WIRE -208 -176 -256 -176
WIRE -112 -176 -112 -192
WIRE -112 -176 -208 -176
WIRE -208 -48 -432 -48
WIRE 16 -48 -208 -48
WIRE 96 -48 16 -48
WIRE 208 -48 96 -48
WIRE 208 -32 208 -48
WIRE -432 0 -432 -48
WIRE -208 0 -208 -48
WIRE 16 0 16 -48
WIRE 144 48 112 48
WIRE 320 48 272 48
WIRE -432 128 -432 64
WIRE -432 128 -480 128
WIRE -208 128 -208 64
WIRE -208 128 -256 128
WIRE 16 128 16 64
WIRE 16 128 -32 128
WIRE 320 128 320 48
WIRE 320 128 256 128
WIRE 384 128 320 128
WIRE 112 160 112 48
WIRE 256 160 256 128
WIRE 384 160 384 128
WIRE -432 192 -432 128
WIRE -208 192 -208 128
WIRE 16 192 16 128
WIRE -432 288 -432 256
WIRE -208 288 -208 256
WIRE 16 288 16 256
WIRE 112 288 112 240
WIRE 256 288 256 224
WIRE 384 288 384 240
FLAG -304 -304 FaseA
FLAG -208 -304 FaseB
FLAG -112 -304 FaseC
FLAG -480 128 FaseA
FLAG -256 128 FaseB
FLAG -32 128 FaseC
FLAG -208 288 0
FLAG 96 -48 Pos
FLAG -256 -176 Neutro
FLAG -432 288 0
FLAG 16 288 0
FLAG 112 288 0
FLAG 256 288 0
FLAG 384 288 0
SYMBOL diode -416 64 R180
WINDOW 0 24 64 Left 2
WINDOW 3 47 28 Left 2
SYMATTR InstName D1
SYMATTR Value MUR460
SYMBOL diode -416 256 R180
WINDOW 0 24 64 Left 2
WINDOW 3 44 29 Left 2
SYMATTR InstName D2
SYMATTR Value MUR460
SYMBOL diode -192 64 R180
WINDOW 0 24 64 Left 2
WINDOW 3 47 34 Left 2
SYMATTR InstName D3
SYMATTR Value MUR460
SYMBOL diode -192 256 R180
WINDOW 0 24 64 Left 2
WINDOW 3 40 31 Left 2
SYMATTR InstName D4
SYMATTR Value MUR460
SYMBOL diode 32 64 R180
WINDOW 0 24 64 Left 2
WINDOW 3 44 32 Left 2
SYMATTR InstName D5
SYMATTR Value MUR460
SYMBOL diode 32 256 R180
WINDOW 0 30 58 Left 2
WINDOW 3 46 29 Left 2
SYMATTR InstName D6
SYMATTR Value MUR460
SYMBOL voltage -304 -288 R0
WINDOW 3 96 132 Center 2
WINDOW 123 0 0 Left 2
WINDOW 39 0 0 Left 2
WINDOW 0 0 60 Center 2
SYMATTR Value SINE(0 {Vpico} {Frec} 0 0 {FaseA})
SYMATTR InstName V1
SYMBOL voltage -208 -288 R0
WINDOW 3 -1 160 Center 2
WINDOW 123 0 0 Left 2
WINDOW 39 0 0 Left 2
WINDOW 0 -15 59 Left 2
SYMATTR Value SINE(0 {Vpico} {Frec} 0 0 {FaseB})
SYMATTR InstName V2
SYMBOL voltage -112 -288 R0
WINDOW 3 -95 189 Center 2
WINDOW 123 0 0 Left 2
WINDOW 39 0 0 Left 2
WINDOW 0 -15 60 Left 2
SYMATTR Value SINE(0 {Vpico} {Frec} 0 0 {FaseC})
SYMATTR InstName V3
SYMBOL res 96 144 R0
SYMATTR InstName R1
SYMATTR Value 8.4
SYMBOL cap 240 160 R0
SYMATTR InstName C1
SYMATTR Value 4700µF
SYMBOL res 368 144 R0
SYMATTR InstName R2
SYMATTR Value 84
SYMBOL Spdt 208 16 R0
SYMATTR InstName U2
TEXT 16 -104 Left 2 !.tran 0 {2/Frec} {1/Frec}
TEXT 16 -328 Left 2 !.param Vpico = Vrms * sqrt(2)/sqrt(3)
TEXT 16 -296 Left 2 !.param Frec = 60
TEXT 16 -264 Left 2 !.param FaseA = 0
TEXT 16 -232 Left 2 !.param FaseB = 120
TEXT 16 -200 Left 2 !.param FaseC = 240
TEXT 16 -136 Left 2 ;.step param switch list 1 0
TEXT 16 -360 Left 2 !.param Vrms = 480
TEXT 16 -168 Left 2 !.param switch = 1
